/*--------------------------------*- C++ -*----------------------------------*\
| =========                 |                                                 |
| \\      /  F ield         | OpenFOAM: The Open Source CFD Toolbox           |
|  \\    /   O peration     | Version:  2.3.0                                 |
|   \\  /    A nd           | Web:      www.OpenFOAM.org                      |
|    \\/     M anipulation  |                                                 |
\*---------------------------------------------------------------------------*/
FoamFile
{
    version     2.0;
    format      ascii;
    class       dictionary;
    location    "system";
    object      setFieldsDict;
}
// * * * * * * * * * * * * * * * * * * * * * * * * * * * * * * * * * * * * * //

defaultFieldValues
(
    volScalarFieldValue T 300
);

regions
(
    boxToCell
    {
        box (-5 -1 -1) (0 1 1);
        fieldValues
        (
            volScalarFieldValue T 400
        );
    }
    sphereToCell
    {
        centre (0.0 0.0 0.0);
        radius 1;
        fieldValues
        (
            volScalarFieldValue T 500
        );
    }
    cylinderToCell
    {
        p1 (4 -2 0); //Min
        p2 (4 2 0); //Max
        radius 1;
        fieldValues
        (
            volScalarFieldValue T 600
        );
    }
);


// ************************************************************************* //
