/*--------------------------------*- C++ -*----------------------------------*\
| =========                 |                                                 |
| \\      /  F ield         | OpenFOAM: The Open Source CFD Toolbox           |
|  \\    /   O peration     | Version:  4.0                                   |
|   \\  /    A nd           | Web:      www.OpenFOAM.org                      |
|    \\/     M anipulation  |                                                 |
\*---------------------------------------------------------------------------*/
FoamFile
{
    version     2.0;
    format      ascii;
    class       dictionary;
    object      blockMeshDict;
}
// * * * * * * * * * * * * * * * * * * * * * * * * * * * * * * * * * * * * * //

//Very simple block with a length of 10.

convertToMeters 1;

vertices
(
    (-5 -5 -1)//reaching from -5m
    (5 -5 -1)//to 5m in the x direction
    (5 5 -1)
    (-5 5 -1)
    (-5 -5 1)
    (5 -5 1)
    (5 5 1)
    (-5 5 1)
);

blocks
(
    hex (0 1 2 3 4 5 6 7) (100 100 1) simpleGrading (1 1 1)//1000 cells in the x direction, 1 in the y and the z direction - 1D simulation!
);

edges
(
);

boundary
(
    sides
    {
        type patch;//the two faces below define this patch
        faces
        (
            (1 2 6 5)//number of vertices defining this face
            (0 4 7 3)
            (0 1 5 4)
            (3 7 6 2)
        );
    }
    empty
    {
        type empty;
        faces
        (
            (5 6 7 4)
            (0 3 2 1)
        );
    }
);

mergePatchPairs
(
);

// ************************************************************************* //
